Version 4
SHEET 1 1208 680
WIRE 1152 32 1024 32
WIRE 480 80 464 80
WIRE 624 80 560 80
WIRE 1152 96 1152 32
WIRE 768 128 768 64
WIRE 1024 128 1024 112
WIRE 1024 128 928 128
WIRE 1056 128 1024 128
WIRE 928 144 928 128
WIRE 1024 144 1024 128
WIRE -32 176 -48 176
WIRE 80 176 48 176
WIRE 96 176 80 176
WIRE 352 176 160 176
WIRE 464 176 464 80
WIRE 464 176 432 176
WIRE 480 176 464 176
WIRE -48 192 -48 176
WIRE 624 192 624 80
WIRE 624 192 544 192
WIRE 672 192 624 192
WIRE 480 208 448 208
WIRE 928 224 928 208
WIRE 1152 224 1152 160
WIRE 448 256 448 208
WIRE 80 272 80 240
FLAG 448 256 Vbias
FLAG 512 224 0
FLAG 512 160 3V3
FLAG -48 272 0
FLAG 768 208 0
FLAG 768 64 3V3
FLAG 80 272 0
FLAG 1056 128 Vbias
FLAG 1024 32 3V3
FLAG 1024 224 0
FLAG 928 224 0
FLAG 1152 224 0
SYMBOL cap 96 192 R270
WINDOW 0 32 32 VTop 2
WINDOW 3 0 32 VBottom 2
SYMATTR InstName C1
SYMATTR Value 10µ
SYMBOL res 336 192 R270
WINDOW 0 32 56 VTop 2
WINDOW 3 0 56 VBottom 2
SYMATTR InstName R2
SYMATTR Value 1k
SYMBOL res 464 96 R270
WINDOW 0 32 56 VTop 2
WINDOW 3 0 56 VBottom 2
SYMATTR InstName R3
SYMATTR Value 15k
SYMBOL voltage -48 176 R0
WINDOW 3 24 152 Left 2
WINDOW 123 24 124 Left 2
WINDOW 39 0 0 Left 2
SYMATTR InstName V1
SYMATTR Value SINE(0 0.05 1k)
SYMATTR Value2 AC 1
SYMBOL Opamps\\UniversalOpamp2 512 192 R0
SYMATTR InstName U1
SYMATTR Value2 Avol=1Meg GBW=1Meg Slew=1Meg
SYMATTR SpiceLine ilimit=2m rail=0 Vos=0 phimargin=45
SYMATTR SpiceLine2 en=0 enk=0 in=0 ink=0 Rin=1Meg
SYMBOL voltage 768 112 R0
WINDOW 123 0 0 Left 2
WINDOW 39 0 0 Left 2
SYMATTR InstName V3
SYMATTR Value 3.3
SYMBOL cap 64 176 R0
SYMATTR InstName C2
SYMATTR Value 22n
SYMBOL res 64 160 R90
WINDOW 0 0 56 VBottom 2
WINDOW 3 32 56 VTop 2
SYMATTR InstName R4
SYMATTR Value 470
SYMBOL res 1040 128 R180
WINDOW 0 36 76 Left 2
WINDOW 3 36 40 Left 2
SYMATTR InstName R1
SYMATTR Value 10k
SYMBOL res 1040 240 R180
WINDOW 0 36 76 Left 2
WINDOW 3 36 40 Left 2
SYMATTR InstName R5
SYMATTR Value 10k
SYMBOL cap 912 144 R0
SYMATTR InstName C3
SYMATTR Value 0.1µ
SYMBOL cap 1136 96 R0
SYMATTR InstName C4
SYMATTR Value 10µ
TEXT -370 200 Left 2 !;ac dec 1000 5 10000k
TEXT -364 160 Left 2 !.tran 0 10m 0 0.01m
